LAMMPS (29 Mar 2019)
###################### Protein Translocation ######################
clear

#Initialization
#------------------------------------
units				lj
dimension			3
atom_style			full
boundary			p p p

#Atom Definition
#-------------------------------------
read_data			../data.prot
  orthogonal box = (-10 -10 -120) to (10 10 120)
  reading atoms ...
  7039 atoms

#Force definition
#----------------------------------------------

#Pair definition
dielectric		80
pair_style		 lj/cut/coul/debye 1.53 1.12 5
pair_modify 		 shift yes
pair_coeff	1 1 1 1 1.12
pair_coeff	1 2 1 1 1.12
pair_coeff	2 2 1 1 1.12

#Group etc
#------------------------------------------
group protein type 1
76 atoms in group protein
group pore type 2
6963 atoms in group pore
neigh_modify exclude type 1 1
neigh_modify exclude type 2 2

#Timestep etc
#--------------------------------------------
timestep		0.03
run_style		verlet
velocity		protein	create	1	10

#Fix
#---------------------------------------
fix 1 protein rigid/nve group 1 protein  langevin 1	1	1	10
1 rigid bodies with 76 atoms
variable rad atom sqrt(x*x+y*y)
variable rad2 atom (x*x+y*y)
variable forz atom -0.00333032-2.48216e-19*v_rad+2.65514e-05*v_rad2+9.68155e-21*v_rad2*v_rad-3.31157e-06*v_rad2*v_rad2-2.35103e-22*v_rad2*v_rad2*v_rad+2.42746e-07*v_rad2*v_rad2*v_rad2
fix 2 protein addforce 0 0 v_forz

#Dump
#------------------------------------------------
variable zc equal xcm(protein,z)

thermo_style		 custom step temp press pe evdwl ecoul ke etotal enthalpy v_zc
thermo 	2000
dump	3 protein custom 2000 dump.lammpstrj id mol type xu yu zu

#--------Variables etc ---------
variable pLong equal 84.2105
variable nLong equal -84.2105
fix 4 protein efield 0.0 0.0 0.019
  update every 1 steps, delay 10 steps, check yes
Step Temp Press PotEng E_vdwl E_coul KinEng TotEng Enthalpy v_zc
0 0.00012078047 0.0027922238            0            0            0 0.00017924034 0.00017924034  0.038260429 -3.9473684e-08
Averages over the last 51 of 101 rows, steps 100000 to 200000:
Temp Press PotEng E_vdwl E_coul KinEng TotEng Enthalpy v_zc
0.000310548 -0.00058892 7.71453e-07 3.79085e-06 -3.01939e-06 0.000460859 0.00046163 -0.00757024 -29.1275
Loop time of 110.048 on 1 procs for 200000 steps with 7039 atoms

Step Temp Press PotEng E_vdwl E_coul KinEng TotEng Enthalpy v_zc
200000 0.00026882587 1.9501077e-05            0            0            0 0.00039894232 0.00039894232 0.00066490387   -36.601298
Averages over the last 51 of 101 rows, steps 300000 to 400000:
Temp Press PotEng E_vdwl E_coul KinEng TotEng Enthalpy v_zc
0.000298802 -0.00092629 8.02993e-06 1.17519e-05 -3.72202e-06 0.000443428 0.000451458 -0.0121816 -40.3781
Loop time of 119.98 on 1 procs for 200000 steps with 7039 atoms

Step Temp Press PotEng E_vdwl E_coul KinEng TotEng Enthalpy v_zc
400000 0.00051789074 0.00042604384 0.00012490896 0.00012490896            0 0.00076855898 0.00089346793 0.0067039821   -36.888705
Averages over the last 51 of 101 rows, steps 500000 to 600000:
Temp Press PotEng E_vdwl E_coul KinEng TotEng Enthalpy v_zc
0.000299405 0.000201288 9.93469e-06 1.20565e-05 -2.12178e-06 0.000444323 0.000454257 0.00319949 -43.35
Loop time of 117.677 on 1 procs for 200000 steps with 7039 atoms

Step Temp Press PotEng E_vdwl E_coul KinEng TotEng Enthalpy v_zc
600000 0.00011756382 -2.0252237e-05 1.8517833e-06 1.8517833e-06            0 0.00017446678 0.00017631856 -9.9887542e-05   -45.360629
Averages over the last 51 of 101 rows, steps 700000 to 800000:
Temp Press PotEng E_vdwl E_coul KinEng TotEng Enthalpy v_zc
0.000311768 -0.000239127 4.0643e-06 7.83684e-06 -3.77255e-06 0.00046267 0.000466734 -0.00279455 -72.9563
Loop time of 120.289 on 1 procs for 200000 steps with 7039 atoms

Step Temp Press PotEng E_vdwl E_coul KinEng TotEng Enthalpy v_zc
800000 0.00010559756 7.6602227e-06            0            0            0 0.00015670863 0.00015670863 0.00026118106   -82.003533
Averages over the last 51 of 101 rows, steps 900000 to 1000000:
Temp Press PotEng E_vdwl E_coul KinEng TotEng Enthalpy v_zc
0.00030523 -0.00392141 5.07443e-06 3.29847e-06 1.77596e-06 0.000452966 0.000458041 -0.0530233 -106.598
Loop time of 114.657 on 1 procs for 200000 steps with 7039 atoms

quit
